17
norbornene
 C    0.028800   -1.116700   -0.311900
 C    0.028500    1.116700   -0.311900
 C    0.037300   -0.000000   -1.360200
 C   -1.255800   -0.777100    0.472600
 C   -1.255900    0.776900    0.472600
 C    1.208700   -0.670600    0.519400
 C    1.208400    0.670800    0.519400
 H    0.097900   -2.130900   -0.705900
 H    0.097400    2.130900   -0.706000
 H    0.935000   -0.000000   -1.991600
 H   -0.851800   -0.000100   -2.001000
 H   -1.251500   -1.183000    1.489800
 H   -2.144400   -1.151900   -0.047400
 H   -2.144800    1.151500   -0.047500
 H   -1.251800    1.182800    1.489800
 H    1.888400   -1.311700    1.057400
 H    1.888000    1.312100    1.057400
